ℹ️  Uploading contract WASM…
ℹ️  Simulating transaction…
ℹ️  Signing transaction: dbcfd22ad273fdc75efc7e737410ff6480901ff61dbb002a2a8b948bcdd109fd
🌎 Sending transaction…
✅ Transaction submitted successfully!
🔗 https://stellar.expert/explorer/testnet/tx/dbcfd22ad273fdc75efc7e737410ff6480901ff61dbb002a2a8b948bcdd109fd
ℹ️  Deploying contract using wasm hash 3395e5984f593d309f996e3c9a9283831caebd346c7aa36483dfd4ac0e5c0813
ℹ️  Simulating transaction…
ℹ️  Signing transaction: e07d3a90f17731fdc70dc4917b1154d3e74f621e2d6ee96c143f4610467b4179
🌎 Sending transaction…
✅ Transaction submitted successfully!
🔗 https://stellar.expert/explorer/testnet/tx/e07d3a90f17731fdc70dc4917b1154d3e74f621e2d6ee96c143f4610467b4179
🔗 https://lab.stellar.org/r/testnet/contract/CBBDZY4VK5MT3DK3CGFULKTXEHCDL7ERCU7LKMUIFHAULY3HVHUBY3MX
✅ Deployed!
